LTspice 24.0.9 for Windows
Circuit: * C:\Users\ntocu\OneDrive\Documenti\GitHub\cheapOX\Draft1.asc
Start Time: Sat Jun 22 00:48:57 2024
solver = Normal
Maximum thread count: 16
tnom = 27
temp = 27
method = modified trap
c: Increased Cpar to 2.2e-14
.OP point found by inspection.
Total elapsed time: 0.029 seconds.

